Circuit: * C:\Users\tec\Documents\Projects EDA\motor-ipm-tester\simaulation\motor-ipm-tester.asc

Limiting rise time of source v3 to 0.0008
Limiting fall time of source v3 to 0.0008
Limiting rise time of source v2 to 0.0008
Limiting fall time of source v2 to 0.0008
Limiting rise time of source v1 to 0.0008
Limiting fall time of source v1 to 0.0008
.OP point found by inspection.

Date: Fri Jul 05 03:06:15 2019
Total elapsed time: 0.172 seconds.

tnom = 27
temp = 27
method = modified trap
totiter = 2329
traniter = 2329
tranpoints = 1116
accept = 1108
rejected = 8
matrix size = 10
fillins = 0
solver = Normal
Matrix Compiler1:      19 opcodes  0.1/[0.1]/0.1
Matrix Compiler2: 692 bytes object code size  0.1/0.2/[0.1]

