Circuit: * D:\Documents\EDA\mosfet-amplificador\lt-spice\mosfet-amplificador.asc

Direct Newton iteration for .op point succeeded.

Date: Tue Sep 03 06:27:38 2019
Total elapsed time: 0.078 seconds.

tnom = 27
temp = 27
method = modified trap
totiter = 2420
traniter = 2414
tranpoints = 1043
accept = 1043
rejected = 0
matrix size = 11
fillins = 1
solver = Normal
Matrix Compiler1: 530 bytes object code size  0.2/0.1/[0.1]
Matrix Compiler2: 787 bytes object code size  0.1/0.1/[0.1]

