Circuit: * D:\Documents\EDA\comutador-de-fonte\lt-spice\comutador-para-fonte.asc

Limiting rise time of source v2 to 5e-005
Limiting fall time of source v2 to 5e-005
Direct Newton iteration for .op point succeeded.

Date: Fri Sep 06 05:42:52 2019
Total elapsed time: 0.132 seconds.

tnom = 27
temp = 27
method = modified trap
totiter = 13715
traniter = 13708
tranpoints = 4200
accept = 3281
rejected = 919
matrix size = 14
fillins = 0
solver = Normal
Matrix Compiler1: 742 bytes object code size  0.2/0.1/[0.1]
Matrix Compiler2: 1.07 KB object code size  0.1/0.2/[0.1]

