Circuit: * D:\Documents\EDA\comutador-ponte-h\lt-spice\comutador-ponte-h.asc

Limiting rise time of source v3 to 4e-005
Limiting fall time of source v3 to 4e-005
Limiting rise time of source v2 to 4e-005
Limiting fall time of source v2 to 4e-005
Direct Newton iteration for .op point succeeded.

Date: Fri Sep 06 06:12:03 2019
Total elapsed time: 0.125 seconds.

tnom = 27
temp = 27
method = modified trap
totiter = 15093
traniter = 15071
tranpoints = 4841
accept = 3886
rejected = 955
matrix size = 24
fillins = 2
solver = Normal
Matrix Compiler1: 1.40 KB object code size  0.3/0.2/[0.2]
Matrix Compiler2: 1.97 KB object code size  0.2/0.3/[0.2]

