Circuit: * D:\Documents\EDA\amplificador-jfet\lt-spice\amplificador-jfet.asc

Direct Newton iteration for .op point succeeded.

Date: Mon Sep 02 06:24:07 2019
Total elapsed time: 0.235 seconds.

tnom = 27
temp = 27
method = modified trap
totiter = 3110
traniter = 3095
tranpoints = 1042
accept = 1042
rejected = 0
matrix size = 13
fillins = 4
solver = Normal
Matrix Compiler1: 834 bytes object code size  0.5/0.3/[0.2]
Matrix Compiler2: off  [0.3]/0.3/0.3

