Circuit: * D:\Documents\EDA\jfet-polarization-source-current\lt-spice\jfet-polarization-source-current.asc

Direct Newton iteration for .op point succeeded.

Date: Thu Aug 29 07:01:21 2019
Total elapsed time: 0.187 seconds.

tnom = 27
temp = 27
method = modified trap
totiter = 2097
traniter = 2082
tranpoints = 1042
accept = 1042
rejected = 0
matrix size = 8
fillins = 0
solver = Normal
Matrix Compiler1: 326 bytes object code size  0.3/0.2/[0.1]
Matrix Compiler2: 560 bytes object code size  0.2/0.3/[0.2]

