Circuit: * D:\Documents\EDA\multiplex-jfet\lt-spice\multiplex-jfet.asc

.OP point found by inspection.

Date: Mon Sep 02 08:02:12 2019
Total elapsed time: 0.313 seconds.

tnom = 27
temp = 27
method = modified trap
totiter = 12206
traniter = 12206
tranpoints = 4119
accept = 2621
rejected = 1498
matrix size = 13
fillins = 0
solver = Normal
Matrix Compiler1: 460 bytes object code size  0.3/0.2/[0.1]
Matrix Compiler2: 895 bytes object code size  0.3/0.3/[0.1]

